@<TRIPOS>MOLECULE
MOL
   22    22     1     0     0
SMALL
resp


@<TRIPOS>ATOM
      1 O1          -2.3720     1.9090     0.0620 oh         1 MOL      -0.581982
      2 O2          -3.4750    -0.4900     0.3790 oh         1 MOL      -0.592385
      3 N1           4.3650     0.1490     0.3020 n3         1 MOL      -1.074262
      4 C1           2.1170    -0.0820    -0.6860 c3         1 MOL      -0.042188
      5 C2           0.6310    -0.2180    -0.4350 ca         1 MOL      -0.093398
      6 C3           2.9320     0.0820     0.6080 c3         1 MOL       0.200991
      7 C4          -0.1850     0.9190    -0.3220 ca         1 MOL      -0.228756
      8 C5           0.0360    -1.4700    -0.2680 ca         1 MOL      -0.211075
      9 C6          -1.5480     0.8220    -0.0500 ca         1 MOL       0.249101
     10 C7          -1.3300    -1.5800     0.0050 ca         1 MOL      -0.243264
     11 C8          -2.1330    -0.4480     0.1180 ca         1 MOL       0.287814
     12 H1           2.3080     0.7840    -1.3360 hc         1 MOL       0.070397
     13 H2           2.4980    -0.9620    -1.2170 hc         1 MOL       0.070397
     14 H3           2.5440     0.9540     1.1670 h1         1 MOL       0.035972
     15 H4           2.7640    -0.7950     1.2450 h1         1 MOL       0.035972
     16 H5           0.2520     1.9090    -0.4540 ha         1 MOL       0.127303
     17 H6           0.6380    -2.3710    -0.3550 ha         1 MOL       0.163725
     18 H7          -1.7830    -2.5630     0.1280 ha         1 MOL       0.133639
     19 H8           4.9000     0.1980     1.1680 hn         1 MOL       0.403639
     20 H9           4.5670     1.0140    -0.2000 hn         1 MOL       0.403639
     21 H10         -1.8420     2.7080    -0.0810 ho         1 MOL       0.441018
     22 H11         -3.7390    -1.4200     0.4640 ho         1 MOL       0.443704
@<TRIPOS>BOND
     1     1     9 1   
     2     1    21 1   
     3     2    11 1   
     4     2    22 1   
     5     3     6 1   
     6     3    19 1   
     7     3    20 1   
     8     4     5 1   
     9     4     6 1   
    10     4    12 1   
    11     4    13 1   
    12     5     7 ar  
    13     5     8 ar  
    14     6    14 1   
    15     6    15 1   
    16     7     9 ar  
    17     7    16 1   
    18     8    10 ar  
    19     8    17 1   
    20     9    11 ar  
    21    10    11 ar  
    22    10    18 1   
@<TRIPOS>SUBSTRUCTURE
     1 MOL         1 TEMP              0 ****  ****    0 ROOT
